**$ENCRYPTED_LIB
**$INTERFACE
* PSpice Model Editor - Version 16.0.0
*$
*****************************************************************************
** This product is designed as an aid for customers of Texas Instruments.  **
** No warranties, either expressed or implied, with respect to this third  **
** party software (if any) or with respect to its fitness for any          **
** particular purpose is claimed by Texas Instruments or the author. The   **
** software (if any) is provided solely on an "as is" basis. The entire    **
** risk as to its quality and performance is with the customer             **
*****************************************************************************
*
* This model was developed for Texas Instruments Incorporated by:
*   AEi Systems, LLC
*   5777 W. Century Blvd., Suite 876
*   Los Angeles, California  90045
*
* This model is subject to change without notice. Neither Texas Instruments Incorporated 
* nor AEi Systems is responsible for updating this model.
* For more information regarding modeling services, model libraries and simulation 
* products, please call AEi Systems at (310) 216-1144, or contact AEi Systems by email: 
* info@AENG.com. Or visit AEi Systems on the web at http://www.AENG.com.
*
*****************************************************************************
*
* (C) Copyright 2008 Texas Instruments Incorporated. All rights reserved.
* Released by: Analog e-Lab Design Center, Texas Instruments Inc.
* Part: UCC28C43 (can be used for UCC38C43 also)
* Date: 11/05/2008
* Model Type: Transient Steady State
* Simulator: PSpice
* EVM Order Number: UCC38C44
* EVM Users Guide: slua274a, Oct 2008
* Datasheet: slus458d, Rev Jan 2007
*
*****************************************************************************
*
* Updates:
*
* Final 1.00
* Release to Web.
*
*****************************************************************************
.SUBCKT UCC28C43_STEADY  COMP   FB   CS   RTCT    GND    OUT   VDD   VREF  
****OSCILLATOR*****
$CDNENCSTART
eee8c5c7a2bc4b01f045f303678664e7916da0bae22e8cb0bba041dd67c69ce448ea70148a9ac1670c8926c1ac5057c8ccfcd77bf87ca9dcc42099479ce4bab4
750ab3509b5d1bb84a3510f6777c22200af7c3211c898ad027c38327a42441dd5e8a391510de12a7fa6a3f84e2424d407c346f99f053c3a5f2376fa26b891988
09dadcf4e8727da506071b390cbb9e9b67fead0ddb902c39cc309afae6d9597dbdf1998346d24b3e7747ae655db3151f42204852fc0ac61cf46661ad703d42fe
2571fc62676c3cab7603af0b9555e87652f49c2bf1a5d2f446f57f5bfec5415e7aa733c613b91750636169df878d56926cf5d0cdaf1c83f53d3215aad2f0a806
fdbd81345b2b26299dc31d50338036a02a20de0778a606eb5e8a391510de12a7fa6a3f84e2424d407c346f99f053c3a5cf21c4d961ce14c3f1f4ac319d59677c
****UVLO***********
4f830365bcf363d425c53e6d8e2e4b0732670e14c67499efab84f51bfc8ea66eeca6691771ea5587ba6d9bd2825488c123608a6166e3bf636708fa3b3ac81c5f
17551a01748a7ef007d0aec250f6ad44ed53b4ce5c20ee275e8a391510de12a7fa6a3f84e2424d407c346f99f053c3a5cf21c4d961ce14c3f1f4ac319d59677c
c3c292bd6576d92bf5948b24e03d4879846a4780c2ca869e1a6eb662a05e7dbb675f0ed9f2faef8a445e85612d4df753adc2da39c3db4174dc5d118f41250160
344da1fb65e85979b8d80652c28f2b37dc9f5b87bceafd7ca524a28c007fb0c741bc95d02d87b893d1bb2125d75a0cca6e17949c5ad34b90f759622e384ccfec
****REFERENCE*******
6c30d28651efb7c0d0065291471c50cf82110031a9297431b8066a5403d1a3858685da848757a7e151a3fe3748154938696b928ce6283d9c5f618a835ee89c6c
b22d889d0c834732e7895196bc2ddc7325222f573d62751ceca6691771ea5587ba6d9bd2825488c123608a6166e3bf63a09df1359936c0be17b9f1cfb23c36f9
adb5afb9dc76e1a8812bb918e207028f23f363b602b1468c1b52b6d5f2b8878128f62d57c44e8623cd8302c2476dd8b8f1afe2e2d928611f93c78408ec4944c8
ccc1528e05ed8dc4644126c9831a96bd5e8a391510de12a7fa6a3f84e2424d407c346f99f053c3a5cf21c4d961ce14c3db43f9ee5db8d0bbea37f1fa944d2509
**GB6 19 GND Value = { IF ( V(19,GND) > 4 , (I(V3)) , 0 ) }
49e9aff6daf073ef2860b44e779dcec820caa6a1c6d325a1ce880d70a866a8a052a4b37d57dfc3efb39f3ca79048bba4f0e5d94b737a54a44b93b33c209cced1
7ef06d5726cf51762605403aaabc03e4f3c200d1d28473258bd96f211e304a4e3e628df4b4c1b0df2e00b29ee0c077737603af0b9555e8768b3124f4fe24c243
****CURRENT COMPARATOR*******
cb8a38fe3e7601ab2860b44e779dcec820caa6a1c6d325a13f086d642fa25a881419e41e2a4b4a1c4e9beeb88d183d8e5c66445e1feda72f7ccc0443c629ad57
3b7bf7d41603966ec6f148945a1be2cd445e85612d4df753adc2da39c3db4174f8ebe4910cfb050a70d52c731f510adb99ce1a4773045e9920af017936efab4d
1f7996ef3c64263587c8ed9c9139c83d52f49c2bf1a5d2f446f57f5bfec5415e7aa733c613b91750636169df878d56926cf5d0cdaf1c83f53d3215aad2f0a806
b396ebc7f900147bebb0988f2ceef2b89208a320bc4526f3eca6691771ea5587ba6d9bd2825488c123608a6166e3bf63a09df1359936c0be17b9f1cfb23c36f9
****ERROR AMPLIFIER**********
5411fffe7d71dadef84616cbdf9988cef0ffdbf01c31d801693af49c7a55515a445e85612d4df753adc2da39c3db4174f8ebe4910cfb050ad42ac144d1201197
****OFFSET LIMITER***********
6bed4904fb928ef2d3d8e58cb2e529a9aef99e475c021dae834bdee776976ac3c3e26174eeb53e3061344d2ddaf8b6bd180768c3f670fe05479e5123e9801735
cf27ef2008adad5bc6f148945a1be2cd445e85612d4df753adc2da39c3db4174f8ebe4910cfb050a70d52c731f510adb99ce1a4773045e9920af017936efab4d
bbd1f836fdb204302860b44e779dcec820caa6a1c6d325a196d2727da0afc3fa63fc7269a5a4b07a9cca1cfee105076b075ca28b9d269b097ccc0443c629ad57
e247d76efd744954224cc01f41609158d1bb2125d75a0cca6e17949c5ad34b9096d929cdea18b99dbe7f4ac55a9272034e6be2eb7231e996a13d0ac310be242e
7ca35380f39a96b0b2d9b415609431beeca6691771ea5587ba6d9bd2825488c123608a6166e3bf63a09df1359936c0bee9bea936f6e581ff361305bd84ca393b
****OUTPUT DRIVER************
98e172de1674acfb7e60ef0dc6e55b033fbcf8e27a2ab8cb1cca81f5e2e69dc4608e5066341ff6bdeca6691771ea5587ba6d9bd2825488c1815c8cc098b08a4f
00556404d216c4a65f2e8b1ae92e0777ef43ae2f4b45379487b16485d491574490a784afc857f19b8a0cd78c5d999fb2a5df90e4653374818b843c53ac8c0739
****S-R LATCH****************
c274fbfe11cb45953083929a105d93cdb0af3695caf268900e0e49130579868323f363b602b1468c1b52b6d5f2b8878128f62d57c44e862343583190be0f7aae
****OUTPUT AND GATE**********
b5c73f0de123ab5c2860b44e779dcec820caa6a1c6d325a190d2c3f206f6478a8685da848757a7e1b00af8c7ad6033fb211f85d218f974f89d6bedf9d0034ac8
28ef710a4dc1bd24bdf1998346d24b3e1099019da83cec57d64c542060d993fd23f363b602b1468c1b52b6d5f2b8878128f62d57c44e862343583190be0f7aae
42ab3a9c368d14ff56683b1ef3378e4b383782b5c3b26bd56865be22c27b5dd664f7c0a1a61ca894443b90057b1ee03f42196f8f9cb7c4a859f952ada07b65ab
90930219b912a7eab26887f33eefd73114393a9c63f327ff2a1f97d38f8f023252f49c2bf1a5d2f446f57f5bfec5415e7aa733c613b91750bc8e87387ae1dcf6
42ab3a9c368d14ff6862b35e879053f105089fd89d35867b097f5e62a1a027285ec140ad39006d46bf963e603b40ca6b0a04a5bc0d2d380b8b3124f4fe24c243
d7072740a938f0e7195bba0721ed7ea3c86addb79ae0ce506e720a7ab43e2106eced3e67521324cb2d8b821fb0039f60ce8424cd47dfc5e1b26e537cdf687c38
$CDNENCFINISH
.ENDS UCC28C43_STEADY
*$
*****************************************************************************
** This product is designed as an aid for customers of Texas Instruments.  **
** No warranties, either expressed or implied, with respect to this third  **
** party software (if any) or with respect to its fitness for any          **
** particular purpose is claimed by Texas Instruments or the author. The   **
** software (if any) is provided solely on an "as is" basis. The entire    **
** risk as to its quality and performance is with the customer             **
*****************************************************************************
*
* This model was developed for Texas Instruments Incorporated by:
*   AEi Systems, LLC
*   5777 W. Century Blvd., Suite 876
*   Los Angeles, California  90045
*
* This model is subject to change without notice. Neither Texas Instruments Incorporated 
* nor AEi Systems is responsible for updating this model.
* For more information regarding modeling services, model libraries and simulation 
* products, please call AEi Systems at (310) 216-1144, or contact AEi Systems by email: 
* info@AENG.com. Or visit AEi Systems on the web at http://www.AENG.com.
*
*****************************************************************************
*
* (C) Copyright 2008 Texas Instruments Incorporated. All rights reserved.
* Released by: Analog e-Lab Design Center, Texas Instruments Inc.
* Part: UCC28C43 (can be used for UCC38C43 also)
* Date: 11/05/2008
* Model Type: Transient Startup
* Simulator: PSpice
* EVM Order Number: UCC38C44
* EVM Users Guide: slua274a, Oct 2008
* Datasheet: slus458d, Rev Jan 2007
*
*****************************************************************************
*
* Updates:
*
* Final 1.00
* Release to Web.
*
*****************************************************************************
.SUBCKT UCC28C43_START  COMP   FB   CS   RTCT    GND    OUT   VDD   VREF  
****OSCILLATOR*****
$CDNENCSTART
eee8c5c7a2bc4b01f045f303678664e7916da0bae22e8cb0bba041dd67c69ce448ea70148a9ac1670c8926c1ac5057c8ccfcd77bf87ca9dcc42099479ce4bab4
750ab3509b5d1bb84a3510f6777c22200af7c3211c898ad027c38327a42441dd5e8a391510de12a7fa6a3f84e2424d407c346f99f053c3a5f2376fa26b891988
09dadcf4e8727da506071b390cbb9e9b67fead0ddb902c39cc309afae6d9597dbdf1998346d24b3e7747ae655db3151f42204852fc0ac61cf46661ad703d42fe
2571fc62676c3cab7603af0b9555e87652f49c2bf1a5d2f446f57f5bfec5415e7aa733c613b91750636169df878d56926cf5d0cdaf1c83f53d3215aad2f0a806
fdbd81345b2b26299dc31d50338036a02a20de0778a606eb5e8a391510de12a7fa6a3f84e2424d407c346f99f053c3a5cf21c4d961ce14c3f1f4ac319d59677c
****UVLO***********
4f830365bcf363d425c53e6d8e2e4b0732670e14c67499efab84f51bfc8ea66eeca6691771ea5587ba6d9bd2825488c123608a6166e3bf636708fa3b3ac81c5f
17551a01748a7ef007d0aec250f6ad44ed53b4ce5c20ee275e8a391510de12a7fa6a3f84e2424d407c346f99f053c3a5cf21c4d961ce14c3f1f4ac319d59677c
***CDUMMY 19 GND 0.01p
c3c292bd6576d92bf5948b24e03d4879846a4780c2ca869e1a6eb662a05e7dbb675f0ed9f2faef8a445e85612d4df753adc2da39c3db4174dc5d118f41250160
344da1fb65e85979b8d80652c28f2b37dc9f5b87bceafd7ca524a28c007fb0c741bc95d02d87b893d1bb2125d75a0cca6e17949c5ad34b90f759622e384ccfec
****REFERENCE*******
6c30d28651efb7c0d0065291471c50cf82110031a9297431b8066a5403d1a3858685da848757a7e151a3fe3748154938696b928ce6283d9c5f618a835ee89c6c
b22d889d0c834732e7895196bc2ddc7325222f573d62751ceca6691771ea5587ba6d9bd2825488c123608a6166e3bf63a09df1359936c0be17b9f1cfb23c36f9
adb5afb9dc76e1a8812bb918e207028f23f363b602b1468c1b52b6d5f2b8878128f62d57c44e8623cd8302c2476dd8b8f1afe2e2d928611f93c78408ec4944c8
ccc1528e05ed8dc4644126c9831a96bd5e8a391510de12a7fa6a3f84e2424d407c346f99f053c3a5cf21c4d961ce14c3db43f9ee5db8d0bbea37f1fa944d2509
***GB6 19 GND Value = { IF ( V(19,GND) > 7 , I(V3) , 0 ) }
49e9aff6daf073ef2860b44e779dcec820caa6a1c6d325a1ce880d70a866a8a052a4b37d57dfc3efb39f3ca79048bba4f0e5d94b737a54a4ac4c600a8f766fd8
230fad41e7a81f08aef99e475c021dae834bdee776976ac3c3e26174eeb53e3061344d2ddaf8b6bd180768c3f670fe05190a969ee3d51263db0cdde252ca0a39
bd31a2e863f00296b39f3ca79048bba4f0e5d94b737a54a40ccd52c32d8502dc4b0c7240c83988624d50ae5309144e1a2417540e3dc30ccf756f31e59c560a1c
****CURRENT COMPARATOR*******
cb8a38fe3e7601ab2860b44e779dcec820caa6a1c6d325a13f086d642fa25a881419e41e2a4b4a1c4e9beeb88d183d8e5c66445e1feda72f7ccc0443c629ad57
3b7bf7d41603966ec6f148945a1be2cd445e85612d4df753adc2da39c3db4174f8ebe4910cfb050a70d52c731f510adb99ce1a4773045e9920af017936efab4d
1f7996ef3c64263587c8ed9c9139c83d52f49c2bf1a5d2f446f57f5bfec5415e7aa733c613b91750636169df878d56926cf5d0cdaf1c83f53d3215aad2f0a806
b396ebc7f900147bebb0988f2ceef2b89208a320bc4526f3eca6691771ea5587ba6d9bd2825488c123608a6166e3bf63a09df1359936c0be17b9f1cfb23c36f9
****ERROR AMPLIFIER**********
5411fffe7d71dadef84616cbdf9988cef0ffdbf01c31d801693af49c7a55515a445e85612d4df753adc2da39c3db4174f8ebe4910cfb050ad42ac144d1201197
****OFFSET LIMITER***********
6bed4904fb928ef2d3d8e58cb2e529a9aef99e475c021dae834bdee776976ac3c3e26174eeb53e3061344d2ddaf8b6bd180768c3f670fe05479e5123e9801735
cf27ef2008adad5bc6f148945a1be2cd445e85612d4df753adc2da39c3db4174f8ebe4910cfb050a70d52c731f510adb99ce1a4773045e9920af017936efab4d
bbd1f836fdb204302860b44e779dcec820caa6a1c6d325a196d2727da0afc3fa63fc7269a5a4b07a9cca1cfee105076b075ca28b9d269b097ccc0443c629ad57
e247d76efd744954224cc01f41609158d1bb2125d75a0cca6e17949c5ad34b9096d929cdea18b99dbe7f4ac55a9272034e6be2eb7231e996a13d0ac310be242e
7ca35380f39a96b0b2d9b415609431beeca6691771ea5587ba6d9bd2825488c123608a6166e3bf63a09df1359936c0bee9bea936f6e581ff361305bd84ca393b
****OUTPUT DRIVER************
98e172de1674acfb7e60ef0dc6e55b033fbcf8e27a2ab8cb1cca81f5e2e69dc4608e5066341ff6bdeca6691771ea5587ba6d9bd2825488c1815c8cc098b08a4f
***XDRIVE 19 GND 5 OUT FETOUTC4X ; FETOUTC4X 2845OUT 
00556404d216c4a65f2e8b1ae92e0777ef43ae2f4b45379487b16485d491574490a784afc857f19b8a0cd78c5d999fb2a5df90e4653374818b843c53ac8c0739
****S-R LATCH****************
c274fbfe11cb45953083929a105d93cdb0af3695caf268900e0e49130579868323f363b602b1468c1b52b6d5f2b8878128f62d57c44e862343583190be0f7aae
****OUTPUT AND GATE**********
b5c73f0de123ab5c2860b44e779dcec820caa6a1c6d325a190d2c3f206f6478a8685da848757a7e1b00af8c7ad6033fb211f85d218f974f89d6bedf9d0034ac8
28ef710a4dc1bd24bdf1998346d24b3e1099019da83cec57d64c542060d993fd23f363b602b1468c1b52b6d5f2b8878128f62d57c44e862343583190be0f7aae
42ab3a9c368d14ff56683b1ef3378e4b383782b5c3b26bd56865be22c27b5dd664f7c0a1a61ca894443b90057b1ee03f42196f8f9cb7c4a859f952ada07b65ab
90930219b912a7eab26887f33eefd73114393a9c63f327ff2a1f97d38f8f023252f49c2bf1a5d2f446f57f5bfec5415e7aa733c613b91750bc8e87387ae1dcf6
42ab3a9c368d14ff6862b35e879053f105089fd89d35867b097f5e62a1a027282fad5beb13d389e44000a59a3b9e179f7ed6e47ecd231a5fa4d336c638dba4c3
d7072740a938f0e7195bba0721ed7ea3c86addb79ae0ce506e720a7ab43e2106eced3e67521324cb2d8b821fb0039f60ce8424cd47dfc5e1b26e537cdf687c38
$CDNENCFINISH
.ENDS UCC28C43_START
*$
.SUBCKT 28C4xAMP  4     1    9   20
*                VREF  INV  OUT V-
$CDNENCSTART
eee8c5c7a2bc4b01f045f303678664e7916da0bae22e8cb0bba041dd67c69ce448ea70148a9ac1670c8926c1ac5057c8ccfcd77bf87ca9dcc42099479ce4bab4
1d5086bd77bf8ab33e887e1113b28f62c86addb79ae0ce506e720a7ab43e2106eced3e67521324cb2d8b821fb0039f60ce8424cd47dfc5e1b26e537cdf687c38
512460bb9fda49de81c4b7035e3b7ba6aef99e475c021dae834bdee776976ac3c3e26174eeb53e3061344d2ddaf8b6bd180768c3f670fe05479e5123e9801735
759782a9799ebcd53eb18fbc5fded393445e85612d4df753adc2da39c3db4174f8ebe4910cfb050a70d52c731f510adb99ce1a4773045e9920af017936efab4d
f0010ac5e34db93c603689eebcd63fe25f388bb9e9a591a023f363b602b1468c1b52b6d5f2b8878128f62d57c44e8623cd8302c2476dd8b889cd50fcd9d24ba5
93b813dbcbe302de0e7f35e31961b7a6445e85612d4df753adc2da39c3db4174f8ebe4910cfb050a70d52c731f510adb99ce1a4773045e9920af017936efab4d
845cc0698808868c6adc22ac55e3ff7239ad11ea87917142c87968005dc4c2edeca6691771ea5587ba6d9bd2825488c123608a6166e3bf636708fa3b3ac81c5f
e62fed7d609a4f20285483cebbc2cfbafbd3eddfd0c88010d1bb2125d75a0cca6e17949c5ad34b9096d929cdea18b99dbe7f4ac55a9272034096d84c1387c4af
b97a71ad3c2508f64d2d6d835d857c4bd1bb2125d75a0cca6e17949c5ad34b9096d929cdea18b99dbe7f4ac55a9272034e6be2eb7231e996a13d0ac310be242e
9368f0d226be16420ee58d24a8cd60dd23f363b602b1468c1b52b6d5f2b8878128f62d57c44e8623cd8302c2476dd8b8f1afe2e2d928611f93c78408ec4944c8
769d590c4d1fcbf9c648f510d1d597c0aef99e475c021dae834bdee776976ac3c3e26174eeb53e3061344d2ddaf8b6bd180768c3f670fe05479e5123e9801735
6567b836781c51fadfe20c6467189904aef99e475c021dae834bdee776976ac3c3e26174eeb53e3061344d2ddaf8b6bd180768c3f670fe05479e5123e9801735
7c7cf36ace8391ad381e79fcf2e560c152f49c2bf1a5d2f446f57f5bfec5415e7aa733c613b91750636169df878d56926cf5d0cdaf1c83f53d3215aad2f0a806
42cae100dee2d5abcf76eceaf471cf80eca6691771ea5587ba6d9bd2825488c123608a6166e3bf63a09df1359936c0bee9bea936f6e581ff361305bd84ca393b
43f19eeef741464c5571bdeaee7d79cac86addb79ae0ce506e720a7ab43e2106eced3e67521324cb2d8b821fb0039f60ce8424cd47dfc5e1b26e537cdf687c38
6b5639ef45c3343b23f363b602b1468c1b52b6d5f2b8878128f62d57c44e8623cd8302c2476dd8b8f1afe2e2d928611ff12627f68877e4499adf502613dd21f4
c195e3afa6f522c3b3c816ae310fdc46aef99e475c021dae834bdee776976ac3c3e26174eeb53e3061344d2ddaf8b6bd180768c3f670fe05479e5123e9801735
f52b7064e3fbe3b86db740e8fa673b063ee8623929be15d35e8a391510de12a7fa6a3f84e2424d407c346f99f053c3a5cf21c4d961ce14c3f1f4ac319d59677c
f7f6c9cb4c089047ec2b89b8a3e89a55ae09029892e525bb51245345f7c9f5b5d259eb3dd03351bc52de2c91bd7c4db2cd8afd97c1d83e295f618a835ee89c6c
d7072740a938f0e74edf481a7ee261f2234a6a79fab994b98196fe253f03723ded206692861bb26252f49c2bf1a5d2f446f57f5bfec5415ef37bb5bb286880d3
d7072740a938f0e740c033a2121c3ac1aef99e475c021dae834bdee776976ac3c3e26174eeb53e3061344d2ddaf8b6bd180768c3f670fe05479e5123e9801735
$CDNENCFINISH
.ENDS 28C4xAMP
*$
.SUBCKT 2845OUT  4  7  3  12
*                +V -V IN OUT
$CDNENCSTART
eee8c5c7a2bc4b01f045f303678664e7916da0bae22e8cb0bba041dd67c69ce448ea70148a9ac1670c8926c1ac5057c8ccfcd77bf87ca9dcc42099479ce4bab4
95b90d7c03e0d41d7c8966c3c447163fd1bb2125d75a0cca6e17949c5ad34b9096d929cdea18b99dbe7f4ac55a9272034e6be2eb7231e996a13d0ac310be242e
573cf3331dfdeeb1ce507ecd0c82c41bd1bb2125d75a0cca6e17949c5ad34b9096d929cdea18b99dbe7f4ac55a9272034e6be2eb7231e996a13d0ac310be242e
04952c465bf7ef4e0cd018726a434da3c86addb79ae0ce506e720a7ab43e2106eced3e67521324cb2d8b821fb0039f60ce8424cd47dfc5e1b26e537cdf687c38
81eb54cba95fb4765cde5240c2ea1035c86addb79ae0ce506e720a7ab43e2106eced3e67521324cb2d8b821fb0039f60ce8424cd47dfc5e1b26e537cdf687c38
70f0fcb96db542dd3f3a91dccff35abf445e85612d4df753adc2da39c3db4174f8ebe4910cfb050a70d52c731f510adb99ce1a4773045e9920af017936efab4d
e2c11a6fa9bf28805ef81fdb095a7734aef99e475c021dae834bdee776976ac3c3e26174eeb53e3061344d2ddaf8b6bd180768c3f670fe05479e5123e9801735
7c1755ac1fcb984f99459b59b8034d53eca6691771ea5587ba6d9bd2825488c123608a6166e3bf63a09df1359936c0bee9bea936f6e581ff361305bd84ca393b
a2fe8e2b0789b11ff810e083154e2a48eca6691771ea5587ba6d9bd2825488c123608a6166e3bf63a09df1359936c0bee9bea936f6e581ff361305bd84ca393b
ddc1a346d5c43bf85cde5240c2ea1035c86addb79ae0ce506e720a7ab43e2106eced3e67521324cb2d8b821fb0039f60ce8424cd47dfc5e1b26e537cdf687c38
36206ce104f032bcc7e6608c904d2e5d52f49c2bf1a5d2f446f57f5bfec5415e7aa733c613b91750636169df878d56926cf5d0cdaf1c83f53d3215aad2f0a806
f7f6c9cb4c0890477e4c2a886c8bbf6d07fb552e5b20abdf0c9a8f3c1e33a6fa19d2e58cf95de7da77ef042949d0362fa2ebe579f44a0b565f618a835ee89c6c
f7f6c9cb4c08904715f0665f929631ee00379acbfc320ba594d35e540470d9cb23f363b602b1468c1b52b6d5f2b8878128f62d57c44e862343583190be0f7aae
f7f6c9cb4c0890471889d60d9e5ff8aa6766d64d64099e05025de991bfd636d29ea316137ff78272aa16b4ddbb9ae10dd1bb2125d75a0ccaec2f8722f72a5169
bc5170659813972b8dd236bc5019b62559422285afe543cd2c549fdf95ac764752f49c2bf1a5d2f446f57f5bfec5415e7aa733c613b91750bc8e87387ae1dcf6
d7072740a938f0e7dcd1ce4ac7e10eacf819ca9909ed7f7e3975cb14eaa543edeca6691771ea5587ba6d9bd2825488c123608a6166e3bf636708fa3b3ac81c5f
$CDNENCFINISH
.ENDS 2845OUT
*$
.SUBCKT FETOUTC4X  Vcc  Gnd In Out
*                  Vcc  -V  IN OUT
* simplify with b element with 5.5 ohms make it stiff vcc and zero
$CDNENCSTART
eee8c5c7a2bc4b01f045f303678664e7916da0bae22e8cb0bba041dd67c69ce448ea70148a9ac1670c8926c1ac5057c8ccfcd77bf87ca9dcc42099479ce4bab4
90acb0f65d8208ae8d21ddb16a12ca44ed53b4ce5c20ee275e8a391510de12a7fa6a3f84e2424d407c346f99f053c3a5cf21c4d961ce14c3f1f4ac319d59677c
1ff5f0b860d57d167db956433ea8dafa473374e15a1e464b52f49c2bf1a5d2f446f57f5bfec5415e7aa733c613b91750636169df878d5692c98cf39879f641fe
2d570f13c47b97f1ffc914fe3528f10fed53b4ce5c20ee275e8a391510de12a7fa6a3f84e2424d407c346f99f053c3a5cf21c4d961ce14c3f1f4ac319d59677c
e21475fc98d9ee827db956433ea8dafa9cf3171f4b7a4ce752f49c2bf1a5d2f446f57f5bfec5415e7aa733c613b91750636169df878d5692c98cf39879f641fe
fa318d4c7151075052efd4d2eafe8cfbcc309afae6d9597da701754d925ebccb9b5123ee16f63ce3e71dfe18a9d038dbb5f1c17ee7956303c42099479ce4bab4
327b623605254730aad0cae5ebf3019a5e8a391510de12a7fa6a3f84e2424d407c346f99f053c3a5cf21c4d961ce14c3db43f9ee5db8d0bbea37f1fa944d2509
69a7d1317014c567ebabbfb1dcc59d18c86addb79ae0ce506e720a7ab43e2106eced3e67521324cb2d8b821fb0039f60ce8424cd47dfc5e1b26e537cdf687c38
b0ebd50564be5c4debabbfb1dcc59d18c86addb79ae0ce506e720a7ab43e2106eced3e67521324cb2d8b821fb0039f60ce8424cd47dfc5e1b26e537cdf687c38
0ab23a9b32cbf03e00c8d61efe867e82445e85612d4df753adc2da39c3db4174f8ebe4910cfb050a70d52c731f510adb99ce1a4773045e9920af017936efab4d
8d4378728875d477f4ab13175bfd5655764c7bbc00b0391eddc9174d34d19cfc13a525b878e048d47f5585d7a09d9cfbd1bb2125d75a0ccaec2f8722f72a5169
8d4378728875d477b8d6c38128af4c149e2a64ac42ab874322a8ebf8e0c0ee4f8f7e16e877078876d79b69f7babc5b85aef99e475c021dae73ade87f4a721a77
$CDNENCFINISH
.ENDS FETOUTC4X
*$
.SUBCKT FFLOPC2 1  2 11 12 5  6
*              CLK D R  S  QB Q
$CDNENCSTART
eee8c5c7a2bc4b01f045f303678664e7916da0bae22e8cb0bba041dd67c69ce448ea70148a9ac1670c8926c1ac5057c8ccfcd77bf87ca9dcc42099479ce4bab4
fa80b2a445629ce5e49fa01faebe1b8b5ecedde54d7864e0aef99e475c021dae834bdee776976ac3c3e26174eeb53e3061344d2ddaf8b6bdc64faf241eb2c610
83d9faeb02840f62d80375ff19e76a2738c2a46ab36f1b0c445e85612d4df753adc2da39c3db4174f8ebe4910cfb050a70d52c731f510adb955fccbf2a3e773a
11244341a8168b011728ff00e8d2e8e90091d5a34849b95f445e85612d4df753adc2da39c3db4174f8ebe4910cfb050a70d52c731f510adb955fccbf2a3e773a
6b0e583d7050b153eda5b57d582d03af38c2a46ab36f1b0c445e85612d4df753adc2da39c3db4174f8ebe4910cfb050a70d52c731f510adb955fccbf2a3e773a
7a000cf174e86c763ff218ef1cc1f6bb1b0b6d7004c275b9aef99e475c021dae834bdee776976ac3c3e26174eeb53e3061344d2ddaf8b6bdc64faf241eb2c610
b5eee45b28fad7876f441615cbee818238c2a46ab36f1b0c445e85612d4df753adc2da39c3db4174f8ebe4910cfb050a70d52c731f510adb955fccbf2a3e773a
70d9a5a54b58f53ec781cc0518220b73c86addb79ae0ce506e720a7ab43e2106eced3e67521324cb2d8b821fb0039f60ce8424cd47dfc5e1b26e537cdf687c38
96f702f7295cc741c781cc0518220b73c86addb79ae0ce506e720a7ab43e2106eced3e67521324cb2d8b821fb0039f60ce8424cd47dfc5e1b26e537cdf687c38
$CDNENCFINISH
.ENDS FFLOPC2
*$
.SUBCKT NAND3_0C2 1 2 3 4
$CDNENCSTART
eee8c5c7a2bc4b01f045f303678664e7916da0bae22e8cb0bba041dd67c69ce448ea70148a9ac1670c8926c1ac5057c8ccfcd77bf87ca9dcc42099479ce4bab4
fdfd611258d82adbdc051b9a91e3562ff2465dcc41f73b432f220ef63b1b5eaa4e7d2c325dfc0cb6645853f455172d43bcbe435a8ab4399984c09252ff1b3a2d
8865acadd91d0375e71f71e1875841715e8a391510de12a7fa6a3f84e2424d407c346f99f053c3a5cf21c4d961ce14c3db43f9ee5db8d0bbea37f1fa944d2509
ac90694969b2569aaf17933cdab6f1f6eca6691771ea5587ba6d9bd2825488c123608a6166e3bf63a09df1359936c0bee9bea936f6e581ff361305bd84ca393b
c07e437c00f6310d415f88481aabd77652f49c2bf1a5d2f446f57f5bfec5415e7aa733c613b91750636169df878d56926cf5d0cdaf1c83f53d3215aad2f0a806
$CDNENCFINISH
.ENDS NAND3_0C2 
*$
.SUBCKT NAND3_1C2 1 2 3 4
$CDNENCSTART
eee8c5c7a2bc4b01f045f303678664e7916da0bae22e8cb0bba041dd67c69ce448ea70148a9ac1670c8926c1ac5057c8ccfcd77bf87ca9dcc42099479ce4bab4
fdfd611258d82adbdc051b9a91e3562ff2465dcc41f73b432f220ef63b1b5eaa4e7d2c325dfc0cb6645853f455172d43bcbe435a8ab4399984c09252ff1b3a2d
8865acadd91d0375e71f71e1875841715e8a391510de12a7fa6a3f84e2424d407c346f99f053c3a5cf21c4d961ce14c3db43f9ee5db8d0bbea37f1fa944d2509
ac90694969b2569aaf17933cdab6f1f6eca6691771ea5587ba6d9bd2825488c123608a6166e3bf63a09df1359936c0bee9bea936f6e581ff361305bd84ca393b
c07e437c00f6310d6cf29e55785b6172aad0cae5ebf3019a5e8a391510de12a7fa6a3f84e2424d407c346f99f053c3a5cf21c4d961ce14c3f1f4ac319d59677c
$CDNENCFINISH
.ENDS NAND3_1C2 
*$
.SUBCKT INV 1 2
$CDNENCSTART
eee8c5c7a2bc4b01f045f303678664e7916da0bae22e8cb0bba041dd67c69ce448ea70148a9ac1670c8926c1ac5057c8ccfcd77bf87ca9dcc42099479ce4bab4
51762caa43741950dc051b9a91e3562f641b1e529168d4e516ede39ac315a5d98a5a4bc643a4a154b5f1c17ee7956303eca6691771ea5587945e9644ef106aa5
a2fe8e2b0789b11faf17933cdab6f1f6eca6691771ea5587ba6d9bd2825488c123608a6166e3bf63a09df1359936c0bee9bea936f6e581ff361305bd84ca393b
d75df2b956ebf9c16cf29e55785b6172aad0cae5ebf3019a5e8a391510de12a7fa6a3f84e2424d407c346f99f053c3a5cf21c4d961ce14c3f1f4ac319d59677c
$CDNENCFINISH
.ENDS INV
*$
*Diodes,Inc, Zener 10V-50V; 16.0V  1.00W   
.SUBCKT DI_SMAZ16  1   2
*     Terminals    A   K
$CDNENCSTART
eee8c5c7a2bc4b01f045f303678664e7916da0bae22e8cb0bba041dd67c69ce448ea70148a9ac1670c8926c1ac5057c8ccfcd77bf87ca9dcc42099479ce4bab4
b3390a098a7d8706dd5b3b801a233a5e5e8a391510de12a7fa6a3f84e2424d407c346f99f053c3a5cf21c4d961ce14c3db43f9ee5db8d0bbea37f1fa944d2509
6557d75506a83a160f1911d0ac010dfc5e8a391510de12a7fa6a3f84e2424d407c346f99f053c3a5cf21c4d961ce14c3db43f9ee5db8d0bbea37f1fa944d2509
40709cbd3ddc1652f03113a2a1783852d1bb2125d75a0cca6e17949c5ad34b9096d929cdea18b99dbe7f4ac55a9272034e6be2eb7231e996a13d0ac310be242e
d7072740a938f0e78a869bd0a768cf16698bc404edc0816f70796bdab0ef333f9b6a3fafebba26d6445e85612d4df753adc2da39c3db4174dc5d118f41250160
6ce63539bbff146541e3fc33ed1ac1bd2752e147c3d2654677ce4f00ab98774b916c7726e4db5673aef99e475c021dae834bdee776976ac3f8204732d1e5a3e8
d7072740a938f0e7d199fda1aef543a026203a764dd948f12426df378d7fb4110a83400353645b5823f363b602b1468c1b52b6d5f2b887814ac727fcf7dd614c
$CDNENCFINISH
.ENDS DI_SMAZ16  
*$
.SUBCKT FQB6N80   10 20 30
*     TERMINALS:  D  G  S
$CDNENCSTART
eee8c5c7a2bc4b01f045f303678664e7916da0bae22e8cb0bba041dd67c69ce448ea70148a9ac1670c8926c1ac5057c8ccfcd77bf87ca9dcc42099479ce4bab4
45ee46602b49eb92a04cb9daabbc634c30ecbf0045cc19d65a461076cdf92ff152f49c2bf1a5d2f446f57f5bfec5415e7aa733c613b91750bc8e87387ae1dcf6
040eb724afc9273f64b7a96d7f95a00d23f363b602b1468c1b52b6d5f2b8878128f62d57c44e8623cd8302c2476dd8b8f1afe2e2d928611f93c78408ec4944c8
9ebc2422223ea19f2b572674ac2805d123f363b602b1468c1b52b6d5f2b8878128f62d57c44e8623cd8302c2476dd8b8f1afe2e2d928611f93c78408ec4944c8
ee7d72088e8f1bf6b56587e0399f689252f49c2bf1a5d2f446f57f5bfec5415e7aa733c613b91750636169df878d56926cf5d0cdaf1c83f53d3215aad2f0a806
3045ae6a53163d6802dfa83de7860ee223f363b602b1468c1b52b6d5f2b8878128f62d57c44e8623cd8302c2476dd8b8f1afe2e2d928611f93c78408ec4944c8
d89772fd7e17cf7e035de9d0041ce7be57e2c5aa80851370eca6691771ea5587ba6d9bd2825488c123608a6166e3bf63a09df1359936c0be17b9f1cfb23c36f9
9c07828b2d6bb9f19439c21a69e69274c86addb79ae0ce506e720a7ab43e2106eced3e67521324cb2d8b821fb0039f60ce8424cd47dfc5e1b26e537cdf687c38
af5078cd85f747a2bd9f98dbe595e29636806a8e381bf9a05e8a391510de12a7fa6a3f84e2424d407c346f99f053c3a5cf21c4d961ce14c3f1f4ac319d59677c
f63db5db8858a09d08286ec5d88b708352f49c2bf1a5d2f446f57f5bfec5415e7aa733c613b91750636169df878d56926cf5d0cdaf1c83f53d3215aad2f0a806
5371cda524d761e0329761c972e30ba552f49c2bf1a5d2f446f57f5bfec5415e7aa733c613b91750636169df878d56926cf5d0cdaf1c83f53d3215aad2f0a806
4d2a7895e564d3868b6247f9ac29273152f49c2bf1a5d2f446f57f5bfec5415e7aa733c613b91750636169df878d56926cf5d0cdaf1c83f53d3215aad2f0a806
d302f34de86e6779c9395c44b4c6ef9c52f49c2bf1a5d2f446f57f5bfec5415e7aa733c613b91750636169df878d56926cf5d0cdaf1c83f53d3215aad2f0a806
325a62ddc91998dcf4014c7c3c91c30552f49c2bf1a5d2f446f57f5bfec5415e7aa733c613b91750636169df878d56926cf5d0cdaf1c83f53d3215aad2f0a806
9a4a7cd9141241daa73717d0dc8557c752f49c2bf1a5d2f446f57f5bfec5415e7aa733c613b91750636169df878d56926cf5d0cdaf1c83f53d3215aad2f0a806
b6fdc2dba488a4f20fe341b505ffc17f52f49c2bf1a5d2f446f57f5bfec5415e7aa733c613b91750636169df878d56926cf5d0cdaf1c83f53d3215aad2f0a806
afb7aab18da1847dec2baf1b0a3b0fb123f363b602b1468c1b52b6d5f2b8878128f62d57c44e8623cd8302c2476dd8b8f1afe2e2d928611f93c78408ec4944c8
d7072740a938f0e7468043918fbb46a25d34fe76489c7949d62e35885171bc14d047d824d6b82e763d8ea09d7d911f5282287ecf917269848b3124f4fe24c243
d7072740a938f0e78299df226bf21dbda2132aa86d87dc993b11c4b8772faf496734d47944e0b07f23f363b602b1468c1b52b6d5f2b887814ac727fcf7dd614c
d7072740a938f0e75ad91849900aa5931196d792ca252a8ab411c91715f6a1a753ad8a7431595fedcafb007194c9afc3445e85612d4df753671f3ba378c849d1
8c347b586dacfb661567f3a7b400b7795f5295a3aca6d1865ace0ac53816bc385d6b2bc6f5f8ec5fd1bb2125d75a0cca6e17949c5ad34b90f759622e384ccfec
d7072740a938f0e75308ac40c9044bd86b33b7cefc053e2952f49c2bf1a5d2f446f57f5bfec5415e7aa733c613b91750636169df878d5692c98cf39879f641fe
$CDNENCFINISH
.ENDS FQB6N80
*$
.model D1N4148 D 
$CDNENCSTART
eee8c5c7a2bc4b01f045f303678664e7916da0bae22e8cb0bba041dd67c69ce448ea70148a9ac1670c8926c1ac5057c8ccfcd77bf87ca9dcc42099479ce4bab4
cebfb6bc811be850e5ad3aeb8ec84f7ce014e5a276a4c6fc786b97a82a87f181271e6c856a32d7621eb5ce5fdc5d5de19e0d104015f1ba605cfc488c730c8f1a
523c851eb178979dcaa84df55c335e2b0fc2977bee646d13dc892d2b0f123a7b47cbd1fb45bc7528872c1c80280ffdfb056d65cade745afffd11c6dd083e2c24
468dea4fa5aa8abbeca6691771ea5587ba6d9bd2825488c123608a6166e3bf63a09df1359936c0bee9bea936f6e581ff8131b1c812ed9550b117ee52301d4ad5
$CDNENCFINISH
*$
.SUBCKT C94SA476X0020 2 4
$CDNENCSTART
eee8c5c7a2bc4b01f045f303678664e7916da0bae22e8cb0bba041dd67c69ce448ea70148a9ac1670c8926c1ac5057c8ccfcd77bf87ca9dcc42099479ce4bab4
dff79aeea636feb36cd9ff74958e6a83445e85612d4df753adc2da39c3db4174f8ebe4910cfb050a70d52c731f510adb99ce1a4773045e9920af017936efab4d
ce4f21b9c764ab2c9ea107aad01d5968eb84aec57969dcbd445e85612d4df753adc2da39c3db4174f8ebe4910cfb050a70d52c731f510adb955fccbf2a3e773a
677c87c7494d022280792c117f004b79eca6691771ea5587ba6d9bd2825488c123608a6166e3bf63a09df1359936c0bee9bea936f6e581ff361305bd84ca393b
61b1d0a6a49c0887a74e2e7f541bc82d23f363b602b1468c1b52b6d5f2b8878128f62d57c44e8623cd8302c2476dd8b8f1afe2e2d928611f93c78408ec4944c8
b4dacc7f7af86d131ae5b30c658484d352f49c2bf1a5d2f446f57f5bfec5415e7aa733c613b91750636169df878d56926cf5d0cdaf1c83f53d3215aad2f0a806
74fa16caf79fa89ff74bb1c425439584445e85612d4df753adc2da39c3db4174f8ebe4910cfb050a70d52c731f510adb99ce1a4773045e9920af017936efab4d
ec8db4b34ad9440179ad08afc66a83d3eb84aec57969dcbd445e85612d4df753adc2da39c3db4174f8ebe4910cfb050a70d52c731f510adb955fccbf2a3e773a
ad31c78376e11b1237f71a746a72cc1952f49c2bf1a5d2f446f57f5bfec5415e7aa733c613b91750636169df878d56926cf5d0cdaf1c83f53d3215aad2f0a806
6f2f06759800567124e9af2a0b34097cdfee4885408fd90952f49c2bf1a5d2f446f57f5bfec5415e7aa733c613b91750636169df878d5692c98cf39879f641fe
774b4294137bd30c41fa64fccfedcf8f52f49c2bf1a5d2f446f57f5bfec5415e7aa733c613b91750636169df878d56926cf5d0cdaf1c83f53d3215aad2f0a806
f5c68f0f70eb62c124e9af2a0b34097cdfee4885408fd90952f49c2bf1a5d2f446f57f5bfec5415e7aa733c613b91750636169df878d5692c98cf39879f641fe
912dbaf0beff164a24e9af2a0b34097cdfee4885408fd90952f49c2bf1a5d2f446f57f5bfec5415e7aa733c613b91750636169df878d5692c98cf39879f641fe
583cbcbaf6201399afca67766d28ef98ed53b4ce5c20ee275e8a391510de12a7fa6a3f84e2424d407c346f99f053c3a5cf21c4d961ce14c3f1f4ac319d59677c