*SRC=B240A;DI_B240A;Diodes;Si;  40.0V  2.00A  1.00ns   Diodes Inc. 
.MODEL DI_B240A D  ( IS=7.98u RS=13.4m BV=40.0 IBV=500u
+ CJO=370p  M=0.333 N=1.13 TT=1.44n )